 12
 test
 C                  0.57052297    0.61014262    0.00000000
 C                  1.96568297    0.61014262    0.00000000
 C                  2.66322097    1.81789362    0.00000000
 C                  1.96556697    3.02640262   -0.00119900
 C                  0.57074197    3.02632462   -0.00167800
 C                 -0.12685903    1.81811862   -0.00068200
 H                  0.02076397   -0.34217438    0.00045000
 H                  2.51519097   -0.34237038    0.00131500
 H                  3.76290097    1.81797362    0.00063400
 H                  2.51576697    3.97854562   -0.00125800
 H                  0.02061997    3.97860562   -0.00263100
 H                 -1.22646303    1.81830162   -0.00086200
